####################################################################### 
# 
# This file contains crystal structure data downloaded from the 
# Cambridge Structural Database (CSD) hosted by the Cambridge 
# Crystallographic Data Centre (CCDC).
# 
# Full information about CCDC data access policies and citation 
# guidelines are available at http://www.ccdc.cam.ac.uk/access/V1 
# 
# Audit and citation data items may have been added by the CCDC. 
# Please retain this information to preserve the provenance of 
# this file and to allow appropriate attribution of the data. 
# 
#######################################################################
@<TRIPOS>MOLECULE
256965
    65    70     1     0     0
SMALL
NO_CHARGES
****
Generated from the CSD

@<TRIPOS>ATOM
     1 Zn1      7.5339   5.3006   5.3006   Zn        1 RES1   0.0000
     2 O1       6.4173   6.4173   6.4173   O.3       1 RES1   0.0000
     3 O2       7.2335   5.6010   3.4371   O.co2     1 RES1   0.0000
     4 C1       6.4173   6.4173   2.8364   C.2       1 RES1   0.0000
     5 C2       7.2669   5.5676   0.6751   C.ar      1 RES1   0.0000
     6 C3       6.4173   6.4173   1.3810   C.ar      1 RES1   0.0000
     7 H1       7.8521   4.9824   1.1602   H         1 RES1   0.0000
     8 Zn1P     5.3006   5.3006   7.5339   Zn        1 RES1   0.0000
     9 O2P      5.6010   3.4371   7.2335   O.co2     1 RES1   0.0000
    10 C1P      6.4173   2.8364   6.4173   C.2       1 RES1   0.0000
    11 O2RB     7.2335   3.4371   5.6010   O.co2     1 RES1   0.0000
    12 O2XB     5.6010   7.2335   3.4371   O.co2     1 RES1   0.0000
    13 Zn1XB    5.3006   7.5339   5.3006   Zn        1 RES1   0.0000
    14 Zn1Z     7.5339   7.5339   7.5339   Zn        1 RES1   0.0000
    15 O2Z      7.2335   7.2335   9.3974   O.2       1 RES1   0.0000
    16 O2DB     5.6010   5.6010   9.3974   O.2       1 RES1   0.0000
    17 O2JA     3.4371   5.6010   7.2335   O.2       1 RES1   0.0000
    18 O2C      3.4371   7.2335   5.6010   O.2       1 RES1   0.0000
    19 O2RA     5.6010   9.3974   5.6010   O.2       1 RES1   0.0000
    20 O2QC     7.2335   9.3974   7.2335   O.2       1 RES1   0.0000
    21 O2JB     9.3974   7.2335   7.2335   O.co2     1 RES1   0.0000
    22 C1JB     9.9981   6.4173   6.4173   C.2       1 RES1   0.0000
    23 O2CC     9.3974   5.6010   5.6010   O.co2     1 RES1   0.0000
    24 C3JB    11.4535   6.4173   6.4173   C.ar      1 RES1   0.0000
    25 C2JB    12.1594   7.2669   7.2669   C.ar      1 RES1   0.0000
    26 C2KC    13.5096   7.2669   7.2669   C.ar      1 RES1   0.0000
    27 C3KC    14.2155   6.4173   6.4173   C.ar      1 RES1   0.0000
    28 C1KC    15.6709   6.4173   6.4173   C.2       1 RES1   0.0000
    29 O2KC    16.2716   7.2335   7.2335   O.co2     1 RES1   0.0000
    30 Zn1KC   18.1351   7.5339   7.5339   Zn        1 RES1   0.0000
    31 Zn1AC   18.1351   5.3006   5.3006   Zn        1 RES1   0.0000
    32 O2OB    16.2716   5.6010   5.6010   O.co2     1 RES1   0.0000
    33 C2OB    13.5096   5.5676   5.5676   C.ar      1 RES1   0.0000
    34 C2CC    12.1594   5.5676   5.5676   C.ar      1 RES1   0.0000
    35 H1CC    11.6743   4.9824   4.9824   H         1 RES1   0.0000
    36 H1OB    13.9947   4.9824   4.9824   H         1 RES1   0.0000
    37 H1KC    13.9947   7.8521   7.8521   H         1 RES1   0.0000
    38 H1JB    11.6743   7.8521   7.8521   H         1 RES1   0.0000
    39 C3P      6.4173   1.3810   6.4173   C.ar      1 RES1   0.0000
    40 C2DC     7.2669   5.5676  -0.6751   C.ar      1 RES1   0.0000
    41 C2XB     5.5676   7.2669   0.6751   C.ar      1 RES1   0.0000
    42 C2E      5.5676   7.2669  -0.6751   C.ar      1 RES1   0.0000
    43 H1XB     4.9824   7.8521   1.1602   H         1 RES1   0.0000
    44 C2P      5.5676   0.6751   7.2669   C.ar      1 RES1   0.0000
    45 C2RB     7.2669   0.6751   5.5676   C.ar      1 RES1   0.0000
    46 C3E      6.4173   6.4173  -1.3810   C.ar      1 RES1   0.0000
    47 H1DC     7.8521   4.9824  -1.1602   H         1 RES1   0.0000
    48 H1E      4.9824   7.8521  -1.1602   H         1 RES1   0.0000
    49 C2IB     5.5676  -0.6751   7.2669   C.ar      1 RES1   0.0000
    50 H1P      4.9824   1.1602   7.8521   H         1 RES1   0.0000
    51 C2K      7.2669  -0.6751   5.5676   C.ar      1 RES1   0.0000
    52 H1RB     7.8521   1.1602   4.9824   H         1 RES1   0.0000
    53 C1E      6.4173   6.4173  -2.8364   C.2       1 RES1   0.0000
    54 C3K      6.4173  -1.3810   6.4173   C.ar      1 RES1   0.0000
    55 H1IB     4.9824  -1.1602   7.8521   H         1 RES1   0.0000
    56 H1K      7.8521  -1.1602   4.9824   H         1 RES1   0.0000
    57 O2E      5.6010   7.2335  -3.4371   O.co2     1 RES1   0.0000
    58 O2DC     7.2335   5.6010  -3.4371   O.co2     1 RES1   0.0000
    59 C1K      6.4173  -2.8364   6.4173   C.2       1 RES1   0.0000
    60 Zn1E     5.3006   7.5339  -5.3006   Zn        1 RES1   0.0000
    61 Zn1O     7.5339   5.3006  -5.3006   Zn        1 RES1   0.0000
    62 O2K      7.2335  -3.4371   5.6010   O.co2     1 RES1   0.0000
    63 O2IB     5.6010  -3.4371   7.2335   O.co2     1 RES1   0.0000
    64 Zn1K     7.5339  -5.3006   5.3006   Zn        1 RES1   0.0000
    65 Zn1Q     5.3006  -5.3006   7.5339   Zn        1 RES1   0.0000
@<TRIPOS>BOND
     1     1     2    1
     2     2     8    1
     3     3     1    1
     4     4     3   un
     5     5     6   ar
     6     6     4    1
     7     7     5    1
     8     8     9    1
     9     9    10   un
    10    10    11   un
    11    11     1    1
    12    12     4   un
    13    13     2    1
    14    14     2    1
    15    15    14   un
    16    16     8   un
    17    17     8   un
    18    18    13   un
    19    19    13   un
    20    20    14   un
    21    21    14    1
    22    22    21   un
    23    23     1    1
    24    24    22    1
    25    25    24   ar
    26    26    25   ar
    27    27    26   ar
    28    28    27    1
    29    29    28   un
    30    30    29   un
    31    31    32   un
    32    32    28   un
    33    33    27   ar
    34    34    24   ar
    35    35    34    1
    36    36    33    1
    37    37    26    1
    38    38    25    1
    39    39    10    1
    40    40     5   ar
    41    41     6   ar
    42    42    41   ar
    43    43    41    1
    44    44    39   ar
    45    45    39   ar
    46    46    40   ar
    47    47    40    1
    48    48    42    1
    49    49    44   ar
    50    50    44    1
    51    51    45   ar
    52    52    45    1
    53    53    46    1
    54    54    49   ar
    55    55    49    1
    56    56    51    1
    57    57    53   un
    58    58    53   un
    59    59    54    1
    60    60    57   un
    61    61    58   un
    62    62    59   un
    63    63    59   un
    64    64    62   un
    65    65    63   un
    66    12    13    1
    67    22    23   un
    68    33    34   ar
    69    42    46   ar
    70    51    54   ar
@<TRIPOS>SUBSTRUCTURE
     1 RES1        1 GROUP             0 ****  ****    0  
@<TRIPOS>CRYSIN
   25.6690   25.6690   25.6690   90.0000   90.0000   90.0000   225     1
